XFLR5 v6.09.06

 Calculated polar for: MH 45  9.85% HD d10

 1 1 Reynolds number fixed          Mach number fixed

 xtrf =   1.000 (top)        1.000 (bottom)
 Mach =   0.000     Re =     0.150 e 6     Ncrit =   9.000

  alpha     CL        CD       CDp       Cm    Top Xtr Bot Xtr   Cpmin    Chinge    XCp
 ------- -------- --------- --------- -------- ------- ------- -------- --------- ---------
 -10.000  -0.4380   0.09520   0.09172  -0.0198  1.0000  0.0655  -1.7286   0.0000   0.1984
  -9.500  -0.4582   0.09059   0.08720  -0.0176  1.0000  0.0687  -1.7902   0.0000   0.2058
  -7.500  -0.3580   0.03158   0.02576  -0.0696  1.0000  0.0318  -3.1927   0.0000   0.0479
  -7.000  -0.2982   0.02508   0.01803  -0.0716  1.0000  0.0284  -3.2748   0.0000   0.0014
  -6.500  -0.2452   0.02208   0.01458  -0.0712  1.0000  0.0304  -3.1332   0.0000  -0.0497
  -6.000  -0.1937   0.01989   0.01218  -0.0707  1.0000  0.0387  -2.9409   0.0000  -0.1253
  -5.500  -0.1398   0.01790   0.01017  -0.0705  1.0000  0.0736  -2.8350   0.0000  -0.2674
  -5.000  -0.0600   0.01715   0.01038  -0.0765  0.9894  0.3320  -2.3145   0.0000  -1.0498
  -4.500   0.0193   0.01775   0.01115  -0.0814  0.9741  0.4366  -1.6733   0.0000   4.5444
  -4.000   0.0974   0.01826   0.01180  -0.0857  0.9578  0.5209  -1.0927   0.0000   1.1414
  -3.500   0.1756   0.01887   0.01250  -0.0896  0.9412  0.5937  -0.6431   0.0000   0.7653
  -3.000   0.2537   0.01951   0.01317  -0.0930  0.9247  0.6482  -0.4715   0.0000   0.6193
  -2.500   0.3176   0.01984   0.01348  -0.0937  0.9033  0.6904  -0.5229   0.0000   0.5464
  -2.000   0.3903   0.01981   0.01346  -0.0958  0.8855  0.7290  -0.5850   0.0000   0.4961
  -1.500   0.4668   0.01913   0.01281  -0.0987  0.8695  0.7692  -0.6573   0.0000   0.4615
  -1.000   0.5440   0.01809   0.01195  -0.1014  0.8541  0.8094  -0.7411   0.0000   0.4359
  -0.500   0.6240   0.01670   0.01092  -0.1041  0.8385  0.8726  -0.8432   0.0000   0.4159
   0.000   0.7053   0.01550   0.00984  -0.1072  0.8208  1.0000  -0.9639   0.0000   0.4007
   0.500   0.7381   0.01518   0.00958  -0.1027  0.7660  1.0000  -1.0451   0.0000   0.3873
   1.000   0.8071   0.01332   0.00773  -0.1023  0.7269  1.0000  -1.1857   0.0000   0.3746
   1.500   0.8893   0.01198   0.00597  -0.1038  0.6651  1.0000  -1.3654   0.0000   0.3642
   2.000   0.9412   0.01275   0.00635  -0.1023  0.5928  1.0000  -1.5202   0.0000   0.3557
   2.500   0.9874   0.01367   0.00700  -0.1002  0.5275  1.0000  -1.6900   0.0000   0.3480
   3.000   1.0312   0.01466   0.00774  -0.0978  0.4654  1.0000  -1.8718   0.0000   0.3410
   3.500   1.0732   0.01574   0.00863  -0.0953  0.4049  1.0000  -2.0811   0.0000   0.3344
   4.000   1.1131   0.01693   0.00962  -0.0926  0.3451  1.0000  -2.3458   0.0000   0.3282
   4.500   1.1505   0.01829   0.01077  -0.0897  0.2852  1.0000  -2.6458   0.0000   0.3224
   5.000   1.1853   0.01990   0.01217  -0.0864  0.2304  1.0000  -2.9656   0.0000   0.3168
   5.500   1.2188   0.02175   0.01382  -0.0831  0.1856  1.0000  -3.4797   0.0000   0.3115
   6.000   1.2515   0.02368   0.01569  -0.0798  0.1504  1.0000  -4.0109   0.0000   0.3064
   6.500   1.2816   0.02581   0.01783  -0.0761  0.1235  1.0000  -4.5444   0.0000   0.3015
   7.000   1.3094   0.02836   0.02027  -0.0723  0.1018  1.0000  -5.0813   0.0000   0.2967
   7.500   1.3337   0.03067   0.02283  -0.0681  0.0837  1.0000  -5.5996   0.0000   0.2918
   8.000   1.3561   0.03351   0.02584  -0.0639  0.0688  1.0000  -6.1042   0.0000   0.2873
   8.500   1.3765   0.03693   0.02945  -0.0599  0.0570  1.0000  -6.5839   0.0000   0.2829
   9.000   1.3972   0.04125   0.03401  -0.0563  0.0482  1.0000  -7.0427   0.0000   0.2790
   9.500   1.4066   0.04496   0.03808  -0.0518  0.0418  1.0000  -7.4337   0.0000   0.2749
  10.000   1.4113   0.05116   0.04471  -0.0480  0.0373  1.0000  -7.7111   0.0000   0.2713
  10.500   1.4022   0.05673   0.05082  -0.0439  0.0338  1.0000  -7.8980   0.0000   0.2678
  11.000   1.3943   0.06219   0.05646  -0.0415  0.0304  1.0000  -8.1706   0.0000   0.2654
  12.500   1.2829   0.09800   0.09383  -0.0492  0.0285  1.0000  -7.6826   0.0000   0.2711
  14.000   1.0627   0.19731   0.19394  -0.1097  0.0503  1.0000  -3.7890   0.0000   0.3359
  14.500   0.8487   0.20884   0.20595  -0.1070  0.0746  1.0000  -2.2799   0.0000   0.3607
  15.000   0.8267   0.21687   0.21396  -0.1160  0.0692  1.0000  -1.9483   0.0000   0.3746
  15.500   0.8613   0.22616   0.22335  -0.1132  0.0620  1.0000  -2.2823   0.0000   0.3646
  16.000   0.8398   0.23355   0.23071  -0.1223  0.0598  1.0000  -1.9130   0.0000   0.3784
  16.500   0.8457   0.24150   0.23869  -0.1258  0.0531  1.0000  -1.8628   0.0000   0.3808
  17.000   0.8638   0.25166   0.24889  -0.1262  0.0495  1.0000  -1.9353   0.0000   0.3773
  17.500   0.8562   0.25950   0.25672  -0.1331  0.0450  1.0000  -1.6730   0.0000   0.3861
  18.000   0.8657   0.26745   0.26470  -0.1356  0.0409  1.0000  -1.6609   0.0000   0.3864
  18.500   0.8860   0.27930   0.27657  -0.1355  0.0386  1.0000  -1.7545   0.0000   0.3817
  19.000   0.8771   0.28623   0.28349  -0.1426  0.0369  1.0000  -1.4774   0.0000   0.3907
  19.500   0.8835   0.29490   0.29219  -0.1460  0.0324  1.0000  -1.4170   0.0000   0.3926
  20.000   0.8932   0.30305   0.30039  -0.1482  0.0301  1.0000  -1.4574   0.0000   0.3922


