XFLR5 v6.09.06

 Calculated polar for: MH 45  9.85% HD d-5

 1 1 Reynolds number fixed          Mach number fixed         

 xtrf =   1.000 (top)        1.000 (bottom)
 Mach =   0.000     Re =     0.150 e 6     Ncrit =   9.000

  alpha     CL        CD       CDp       Cm    Top Xtr Bot Xtr   Cpmin    Chinge    XCp    
 ------- -------- --------- --------- -------- ------- ------- -------- --------- ---------
  -9.000  -0.5707   0.12048   0.11761   0.0443  1.0000  0.0611  -1.5902   0.0000   0.3230
  -8.500  -0.5632   0.11207   0.10923   0.0410  1.0000  0.0653  -1.5861   0.0000   0.3185
  -5.000  -0.6668   0.03557   0.02965   0.0134  0.9262  0.0324  -3.3915   0.0000   0.2662
  -4.500  -0.6342   0.02855   0.02161   0.0177  0.8974  0.0280  -3.4762   0.0000   0.2742
  -4.000  -0.5893   0.02407   0.01626   0.0213  0.8768  0.0265  -3.4723   0.0000   0.2826
  -3.500  -0.5403   0.02117   0.01305   0.0235  0.8580  0.0291  -3.2816   0.0000   0.2901
  -3.000  -0.4934   0.01873   0.01044   0.0258  0.8405  0.0373  -3.0811   0.0000   0.2992
  -2.500  -0.4495   0.01629   0.00800   0.0289  0.8237  0.0730  -2.9951   0.0000   0.3114
  -2.000  -0.4131   0.01372   0.00711   0.0321  0.8072  0.3899  -2.6805   0.0000   0.3251
  -1.500  -0.3756   0.01223   0.00672   0.0363  0.7908  0.6273  -2.2156   0.0000   0.3443
  -1.000  -0.2844   0.01317   0.00809   0.0346  0.7743  0.9244  -1.5020   0.0000   0.3696
  -0.500  -0.1470   0.01416   0.00846   0.0208  0.7560  0.9736  -0.7548   0.0000   0.3893
   0.000  -0.0387   0.01394   0.00787   0.0103  0.7346  1.0000  -0.4178   0.0000   0.5138
   0.500   0.0089   0.01388   0.00759   0.0117  0.7149  1.0000  -0.4334   0.0000  -1.0639
   1.000   0.0557   0.01374   0.00726   0.0135  0.6964  1.0000  -0.4825   0.0000   0.0036
   1.500   0.1035   0.01355   0.00692   0.0151  0.6766  1.0000  -0.5373   0.0000   0.0998
   2.000   0.1514   0.01333   0.00659   0.0167  0.6554  1.0000  -0.5989   0.0000   0.1350
   2.500   0.1982   0.01307   0.00619   0.0189  0.6351  1.0000  -0.6678   0.0000   0.1503
   3.000   0.2468   0.01288   0.00593   0.0205  0.6108  1.0000  -0.7464   0.0000   0.1624
   3.500   0.2942   0.01269   0.00562   0.0225  0.5869  1.0000  -0.8330   0.0000   0.1688
   4.000   0.3432   0.01260   0.00545   0.0240  0.5584  1.0000  -0.9301   0.0000   0.1751
   4.500   0.3923   0.01260   0.00539   0.0254  0.5278  1.0000  -1.0392   0.0000   0.1799
   5.000   0.4416   0.01270   0.00541   0.0267  0.4950  1.0000  -1.1606   0.0000   0.1839
   5.500   0.4912   0.01290   0.00562   0.0278  0.4589  1.0000  -1.2991   0.0000   0.1874
   6.000   0.5402   0.01320   0.00586   0.0289  0.4220  1.0000  -1.4526   0.0000   0.1901
   6.500   0.5892   0.01362   0.00629   0.0299  0.3821  1.0000  -1.6216   0.0000   0.1924
   7.000   0.6375   0.01417   0.00680   0.0309  0.3400  1.0000  -1.8155   0.0000   0.1943
   7.500   0.6851   0.01489   0.00750   0.0317  0.2952  1.0000  -2.0400   0.0000   0.1960
   8.000   0.7317   0.01584   0.00839   0.0325  0.2499  1.0000  -2.3343   0.0000   0.1973
   8.500   0.7769   0.01707   0.00955   0.0333  0.2085  1.0000  -2.6609   0.0000   0.1983
   9.000   0.8207   0.01855   0.01105   0.0343  0.1730  1.0000  -3.0697   0.0000   0.1988
   9.500   0.8626   0.02025   0.01276   0.0354  0.1438  1.0000  -3.6259   0.0000   0.1990
  10.000   0.9023   0.02221   0.01468   0.0366  0.1198  1.0000  -4.1952   0.0000   0.1988
  10.500   0.9405   0.02431   0.01704   0.0380  0.0993  1.0000  -4.7616   0.0000   0.1984
  11.000   0.9751   0.02657   0.01944   0.0393  0.0816  1.0000  -5.3288   0.0000   0.1977
  11.500   1.0056   0.02937   0.02239   0.0409  0.0675  1.0000  -5.8609   0.0000   0.1967
  12.000   1.0304   0.03271   0.02602   0.0427  0.0565  1.0000  -6.3314   0.0000   0.1952
  12.500   1.0476   0.03733   0.03101   0.0446  0.0494  1.0000  -6.6983   0.0000   0.1934
  13.000   1.0521   0.04115   0.03515   0.0462  0.0440  1.0000  -7.0044   0.0000   0.1912
  13.500   1.0433   0.04759   0.04182   0.0471  0.0405  1.0000  -7.1450   0.0000   0.1893
  14.000   1.0205   0.05478   0.04953   0.0455  0.0392  1.0000  -7.1171   0.0000   0.1890
  14.500   0.9878   0.06451   0.05970   0.0409  0.0386  1.0000  -6.9610   0.0000   0.1912
  15.000   0.9440   0.07759   0.07317   0.0331  0.0390  1.0000  -6.6431   0.0000   0.1968
  15.500   0.8898   0.09492   0.09075   0.0221  0.0403  1.0000  -6.1270   0.0000   0.2065
  16.000   0.7185   0.15541   0.15107  -0.0098  0.0633  1.0000  -2.9974   0.0000   0.2482
  19.500   0.5725   0.19354   0.18976  -0.0291  0.0571  1.0000  -1.6716   0.0000   0.2882
  20.000   0.6043   0.20442   0.20073  -0.0283  0.0522  1.0000  -1.8740   0.0000   0.2831


