XFLR5 v6.09.06

 Calculated polar for: MH 45  9.85% HD d0

 1 1 Reynolds number fixed          Mach number fixed         

 xtrf =   1.000 (top)        1.000 (bottom)
 Mach =   0.000     Re =     0.150 e 6     Ncrit =   9.000

  alpha     CL        CD       CDp       Cm    Top Xtr Bot Xtr   Cpmin    Chinge    XCp    
 ------- -------- --------- --------- -------- ------- ------- -------- --------- ---------
 -10.000  -0.5789   0.11596   0.11230   0.0122  1.0000  0.0582  -1.9907   0.0000   0.2653
  -9.500  -0.5635   0.10621   0.10260   0.0123  1.0000  0.0605  -1.9131   0.0000   0.2663
  -9.000  -0.5479   0.09942   0.09583   0.0110  1.0000  0.0644  -1.8348   0.0000   0.2649
  -6.000  -0.5135   0.03003   0.02392  -0.0249  1.0000  0.0305  -3.3305   0.0000   0.1967
  -5.500  -0.4886   0.02485   0.01785  -0.0206  1.0000  0.0275  -3.4231   0.0000   0.2032
  -5.000  -0.4155   0.02037   0.01278  -0.0240  0.9846  0.0281  -3.2879   0.0000   0.1874
  -4.500  -0.3374   0.01722   0.00945  -0.0285  0.9663  0.0378  -3.0185   0.0000   0.1606
  -4.000  -0.2784   0.01384   0.00655  -0.0291  0.9421  0.1305  -2.9550   0.0000   0.1404
  -3.500  -0.2315   0.01269   0.00624  -0.0276  0.9170  0.3571  -2.5065   0.0000   0.1259
  -3.000  -0.1895   0.01221   0.00609  -0.0241  0.8940  0.4834  -2.0260   0.0000   0.1177
  -2.500  -0.1480   0.01165   0.00593  -0.0203  0.8711  0.6113  -1.5730   0.0000   0.1076
  -2.000  -0.1060   0.01110   0.00583  -0.0156  0.8505  0.7674  -1.1446   0.0000   0.0967
  -1.500  -0.0232   0.01095   0.00572  -0.0183  0.8323  0.9272  -0.6662   0.0000  -0.5592
  -1.000   0.0896   0.01095   0.00536  -0.0289  0.8111  0.9983  -0.4369   0.0000   0.5746
  -0.500   0.1325   0.01097   0.00507  -0.0265  0.7883  1.0000  -0.4788   0.0000   0.4504
   0.000   0.1775   0.01105   0.00493  -0.0243  0.7641  1.0000  -0.5264   0.0000   0.3862
   0.500   0.2229   0.01111   0.00475  -0.0218  0.7415  1.0000  -0.5794   0.0000   0.3462
   1.000   0.2713   0.01121   0.00469  -0.0200  0.7155  1.0000  -0.6406   0.0000   0.3216
   1.500   0.3199   0.01129   0.00461  -0.0180  0.6898  1.0000  -0.7110   0.0000   0.3038
   2.000   0.3690   0.01136   0.00451  -0.0160  0.6631  1.0000  -0.7914   0.0000   0.2906
   2.500   0.4195   0.01146   0.00450  -0.0144  0.6328  1.0000  -0.8817   0.0000   0.2813
   3.000   0.4706   0.01161   0.00455  -0.0131  0.5994  1.0000  -0.9831   0.0000   0.2743
   3.500   0.5220   0.01181   0.00469  -0.0118  0.5630  1.0000  -1.0982   0.0000   0.2687
   4.000   0.5733   0.01211   0.00483  -0.0105  0.5257  1.0000  -1.2250   0.0000   0.2641
   4.500   0.6249   0.01251   0.00519  -0.0096  0.4842  1.0000  -1.3720   0.0000   0.2606
   5.000   0.6762   0.01302   0.00562  -0.0086  0.4417  1.0000  -1.5366   0.0000   0.2576
   5.500   0.7269   0.01364   0.00619  -0.0077  0.3969  1.0000  -1.7163   0.0000   0.2550
   6.000   0.7768   0.01439   0.00687  -0.0069  0.3492  1.0000  -1.9258   0.0000   0.2527
   6.500   0.8254   0.01531   0.00772  -0.0060  0.2995  1.0000  -2.1842   0.0000   0.2506
   7.000   0.8723   0.01649   0.00876  -0.0050  0.2498  1.0000  -2.4943   0.0000   0.2486
   7.500   0.9173   0.01793   0.01012  -0.0040  0.2048  1.0000  -2.8352   0.0000   0.2466
   8.000   0.9609   0.01955   0.01175  -0.0028  0.1675  1.0000  -3.3470   0.0000   0.2445
   8.500   1.0023   0.02140   0.01359  -0.0014  0.1378  1.0000  -3.9178   0.0000   0.2424
   9.000   1.0414   0.02352   0.01576   0.0002  0.1137  1.0000  -4.4954   0.0000   0.2402
   9.500   1.0780   0.02569   0.01806   0.0019  0.0933  1.0000  -5.0770   0.0000   0.2379
  10.000   1.1105   0.02859   0.02097   0.0039  0.0761  1.0000  -5.6365   0.0000   0.2355
  10.500   1.1397   0.03176   0.02437   0.0062  0.0629  1.0000  -6.1569   0.0000   0.2329
  11.000   1.1625   0.03480   0.02765   0.0087  0.0525  1.0000  -6.6465   0.0000   0.2301
  11.500   1.1760   0.03926   0.03270   0.0120  0.0463  1.0000  -6.9790   0.0000   0.2267
  12.000   1.1821   0.04374   0.03727   0.0148  0.0406  1.0000  -7.3306   0.0000   0.2237
  12.500   1.1681   0.04986   0.04399   0.0169  0.0385  1.0000  -7.4069   0.0000   0.2210
  13.000   1.1470   0.05704   0.05169   0.0165  0.0365  1.0000  -7.4190   0.0000   0.2202
  13.500   1.1222   0.06558   0.06064   0.0137  0.0347  1.0000  -7.3961   0.0000   0.2216
  14.000   1.0843   0.07753   0.07301   0.0076  0.0343  1.0000  -7.1849   0.0000   0.2259
  15.000   0.8236   0.16527   0.16108  -0.0437  0.0606  1.0000  -3.0901   0.0000   0.2883
  16.500   0.6685   0.17995   0.17637  -0.0446  0.0766  1.0000  -2.1487   0.0000   0.3042
  17.000   0.6423   0.18502   0.18141  -0.0535  0.0733  1.0000  -1.7839   0.0000   0.3210
  17.500   0.6543   0.19130   0.18773  -0.0560  0.0660  1.0000  -1.8534   0.0000   0.3227
  18.000   0.6679   0.20036   0.19682  -0.0581  0.0630  1.0000  -1.8834   0.0000   0.3236
  18.500   0.6648   0.20627   0.20274  -0.0638  0.0559  1.0000  -1.7154   0.0000   0.3324
  19.000   0.6937   0.21704   0.21359  -0.0632  0.0513  1.0000  -1.8903   0.0000   0.3264
  19.500   0.6809   0.22159   0.21812  -0.0707  0.0481  1.0000  -1.5790   0.0000   0.3392
  20.000   0.6908   0.22871   0.22527  -0.0739  0.0430  1.0000  -1.5405   0.0000   0.3417


