XFLR5 v6.09.06

 Calculated polar for: MH 45  9.85% HD d-10

 1 1 Reynolds number fixed          Mach number fixed         

 xtrf =   1.000 (top)        1.000 (bottom)
 Mach =   0.000     Re =     0.150 e 6     Ncrit =   9.000

  alpha     CL        CD       CDp       Cm    Top Xtr Bot Xtr   Cpmin    Chinge    XCp    
 ------- -------- --------- --------- -------- ------- ------- -------- --------- ---------
  -3.000  -0.7882   0.03082   0.02315   0.0687  0.8011  0.0271  -3.5896   0.0000   0.3339
  -2.500  -0.7323   0.02627   0.01787   0.0704  0.7881  0.0260  -3.5344   0.0000   0.3432
  -2.000  -0.6765   0.02346   0.01487   0.0712  0.7745  0.0298  -3.2969   0.0000   0.3526
  -1.500  -0.6253   0.02094   0.01227   0.0727  0.7604  0.0390  -3.0976   0.0000   0.3638
  -1.000  -0.5869   0.01712   0.00979   0.0762  0.7467  0.2539  -3.0816   0.0000   0.3777
  -0.500  -0.5284   0.01541   0.01072   0.0781  0.7317  0.7978  -2.5168   0.0000   0.3960
   0.000  -0.3783   0.01963   0.01428   0.0676  0.7141  0.9379  -1.4936   0.0000   0.4270
   0.500  -0.2208   0.01947   0.01353   0.0495  0.6957  0.9856  -0.6828   0.0000   0.4729
   1.000  -0.1363   0.01858   0.01235   0.0437  0.6770  1.0000  -0.4316   0.0000   0.5702
   1.500  -0.0880   0.01821   0.01178   0.0452  0.6607  1.0000  -0.4025   0.0000   0.7652
   2.000  -0.0400   0.01781   0.01122   0.0468  0.6442  1.0000  -0.4542   0.0000   1.4305
   2.500   0.0078   0.01740   0.01066   0.0486  0.6272  1.0000  -0.5111   0.0000  -6.0305
   3.000   0.0554   0.01698   0.01010   0.0505  0.6096  1.0000  -0.5745   0.0000  -0.6767
   3.500   0.1027   0.01655   0.00955   0.0525  0.5914  1.0000  -0.6463   0.0000  -0.2718
   4.000   0.1518   0.01623   0.00913   0.0541  0.5697  1.0000  -0.7260   0.0000  -0.1149
   4.500   0.2009   0.01593   0.00875   0.0556  0.5463  1.0000  -0.8158   0.0000  -0.0351
   5.000   0.2513   0.01573   0.00850   0.0568  0.5198  1.0000  -0.9166   0.0000   0.0160
   5.500   0.3018   0.01560   0.00833   0.0579  0.4915  1.0000  -1.0302   0.0000   0.0504
   6.000   0.3531   0.01556   0.00824   0.0587  0.4605  1.0000  -1.1551   0.0000   0.0758
   6.500   0.4051   0.01562   0.00828   0.0593  0.4271  1.0000  -1.2996   0.0000   0.0956
   7.000   0.4574   0.01577   0.00838   0.0598  0.3919  1.0000  -1.4637   0.0000   0.1111
   7.500   0.5110   0.01604   0.00872   0.0597  0.3517  1.0000  -1.6451   0.0000   0.1247
   8.000   0.5649   0.01646   0.00913   0.0593  0.3092  1.0000  -1.8590   0.0000   0.1361
   8.500   0.6195   0.01709   0.00978   0.0586  0.2645  1.0000  -2.1283   0.0000   0.1461
   9.000   0.6744   0.01801   0.01067   0.0575  0.2209  1.0000  -2.4587   0.0000   0.1550
   9.500   0.7289   0.01919   0.01189   0.0561  0.1818  1.0000  -2.8265   0.0000   0.1627
  10.000   0.7818   0.02076   0.01343   0.0549  0.1502  1.0000  -3.4150   0.0000   0.1689
  10.500   0.8337   0.02243   0.01527   0.0536  0.1232  1.0000  -4.0436   0.0000   0.1743
  11.000   0.8828   0.02458   0.01766   0.0526  0.1008  1.0000  -4.6721   0.0000   0.1785
  11.500   0.9286   0.02685   0.02008   0.0514  0.0814  1.0000  -5.3097   0.0000   0.1819
  12.000   0.9680   0.03007   0.02345   0.0511  0.0662  1.0000  -5.8883   0.0000   0.1839
  12.500   1.0023   0.03328   0.02703   0.0506  0.0548  1.0000  -6.4279   0.0000   0.1855
  13.000   1.0224   0.03839   0.03279   0.0510  0.0481  1.0000  -6.7663   0.0000   0.1854
  13.500   1.0319   0.04262   0.03716   0.0522  0.0423  1.0000  -7.1275   0.0000   0.1840
  14.000   1.0045   0.04839   0.04339   0.0546  0.0409  1.0000  -7.0989   0.0000   0.1794
  14.500   0.9503   0.05094   0.04607   0.0640  0.0411  1.0000  -6.9726   0.0000   0.1654
  15.000   0.9032   0.05529   0.05055   0.0693  0.0410  1.0000  -6.8394   0.0000   0.1550
  15.500   0.8650   0.06436   0.05992   0.0657  0.0409  1.0000  -6.6394   0.0000   0.1548
  16.000   0.8194   0.07699   0.07282   0.0585  0.0413  1.0000  -6.2878   0.0000   0.1586
  17.500   0.5952   0.16391   0.15965   0.0146  0.0814  1.0000  -2.3317   0.0000   0.2089
  18.000   0.6127   0.17297   0.16872   0.0139  0.0780  1.0000  -2.4565   0.0000   0.2102
  18.500   0.6061   0.17967   0.17536   0.0077  0.0704  1.0000  -2.2729   0.0000   0.2201
  19.000   0.6397   0.18912   0.18492   0.0100  0.0654  1.0000  -2.5809   0.0000   0.2163
  19.500   0.6263   0.19496   0.19062   0.0013  0.0614  1.0000  -2.2294   0.0000   0.2298
  20.000   0.6435   0.20138   0.19709  -0.0006  0.0552  1.0000  -2.2970   0.0000   0.2322


