XFLR5 v6.09.06

 Calculated polar for: MH 45  9.85% HD d5

 1 1 Reynolds number fixed          Mach number fixed         

 xtrf =   1.000 (top)        1.000 (bottom)
 Mach =   0.000     Re =     0.150 e 6     Ncrit =   9.000

  alpha     CL        CD       CDp       Cm    Top Xtr Bot Xtr   Cpmin    Chinge    XCp    
 ------- -------- --------- --------- -------- ------- ------- -------- --------- ---------
 -10.000  -0.4071   0.09278   0.08901  -0.0251  1.0000  0.0674  -1.6967   0.0000   0.1814
  -9.500  -0.4395   0.08360   0.08006  -0.0414  1.0000  0.0724  -2.0753   0.0000   0.1494
  -7.000  -0.4569   0.03608   0.03045  -0.0461  1.0000  0.0342  -3.1955   0.0000   0.1433
  -6.500  -0.4243   0.02723   0.02080  -0.0452  1.0000  0.0294  -3.3122   0.0000   0.1377
  -6.000  -0.3790   0.02261   0.01529  -0.0435  0.9997  0.0277  -3.3299   0.0000   0.1294
  -5.500  -0.3016   0.01991   0.01219  -0.0477  0.9902  0.0332  -3.0754   0.0000   0.0855
  -5.000  -0.2252   0.01696   0.00912  -0.0518  0.9799  0.0481  -2.9031   0.0000   0.0126
  -4.500  -0.1482   0.01451   0.00784  -0.0570  0.9683  0.3119  -2.5577   0.0000  -0.1443
  -4.000  -0.0705   0.01422   0.00780  -0.0616  0.9540  0.4374  -1.9088   0.0000  -0.6400
  -3.500   0.0071   0.01391   0.00775  -0.0654  0.9397  0.5419  -1.3069   0.0000   9.6322
  -3.000   0.0818   0.01378   0.00777  -0.0682  0.9247  0.6335  -0.8183   0.0000   1.0934
  -2.500   0.1444   0.01382   0.00781  -0.0682  0.9062  0.7041  -0.4629   0.0000   0.7267
  -2.000   0.2008   0.01350   0.00750  -0.0670  0.8862  0.7648  -0.4712   0.0000   0.5859
  -1.500   0.2572   0.01276   0.00699  -0.0653  0.8674  0.8319  -0.5222   0.0000   0.5048
  -1.000   0.3513   0.01205   0.00642  -0.0716  0.8504  1.0000  -0.6013   0.0000   0.4538
  -0.500   0.3999   0.01196   0.00614  -0.0694  0.8245  1.0000  -0.6585   0.0000   0.4232
   0.000   0.4499   0.01174   0.00577  -0.0672  0.7984  1.0000  -0.7257   0.0000   0.3985
   0.500   0.5007   0.01145   0.00540  -0.0653  0.7660  1.0000  -0.8032   0.0000   0.3791
   1.000   0.5526   0.01101   0.00483  -0.0631  0.7327  1.0000  -0.8925   0.0000   0.3625
   1.500   0.6044   0.01096   0.00449  -0.0610  0.6946  1.0000  -0.9919   0.0000   0.3487
   2.000   0.6561   0.01136   0.00469  -0.0594  0.6488  1.0000  -1.1034   0.0000   0.3380
   2.500   0.7075   0.01182   0.00496  -0.0580  0.6018  1.0000  -1.2309   0.0000   0.3290
   3.000   0.7586   0.01232   0.00534  -0.0568  0.5525  1.0000  -1.3720   0.0000   0.3214
   3.500   0.8089   0.01291   0.00580  -0.0555  0.5020  1.0000  -1.5293   0.0000   0.3147
   4.000   0.8582   0.01362   0.00638  -0.0542  0.4513  1.0000  -1.7044   0.0000   0.3087
   4.500   0.9063   0.01446   0.00707  -0.0528  0.3994  1.0000  -1.9022   0.0000   0.3033
   5.000   0.9529   0.01541   0.00793  -0.0513  0.3450  1.0000  -2.1345   0.0000   0.2984
   5.500   0.9974   0.01655   0.00894  -0.0496  0.2898  1.0000  -2.4316   0.0000   0.2937
   6.000   1.0394   0.01795   0.01015  -0.0477  0.2369  1.0000  -2.7606   0.0000   0.2894
   6.500   1.0794   0.01960   0.01168  -0.0457  0.1917  1.0000  -3.1914   0.0000   0.2852
   7.000   1.1179   0.02146   0.01348  -0.0434  0.1562  1.0000  -3.7410   0.0000   0.2811
   7.500   1.1546   0.02351   0.01551  -0.0410  0.1282  1.0000  -4.3029   0.0000   0.2772
   8.000   1.1890   0.02564   0.01771  -0.0384  0.1053  1.0000  -4.8711   0.0000   0.2733
   8.500   1.2202   0.02817   0.02036  -0.0355  0.0861  1.0000  -5.4264   0.0000   0.2695
   9.000   1.2474   0.03083   0.02322  -0.0323  0.0704  1.0000  -5.9566   0.0000   0.2656
   9.500   1.2702   0.03408   0.02668  -0.0286  0.0585  1.0000  -6.4427   0.0000   0.2616
  10.000   1.2893   0.03812   0.03091  -0.0250  0.0496  1.0000  -6.8903   0.0000   0.2578
  10.500   1.2975   0.04170   0.03494  -0.0206  0.0436  1.0000  -7.2414   0.0000   0.2535
  11.000   1.3015   0.04744   0.04095  -0.0173  0.0387  1.0000  -7.5339   0.0000   0.2502
  11.500   1.2896   0.05309   0.04721  -0.0140  0.0361  1.0000  -7.6594   0.0000   0.2470
  12.000   1.2753   0.05909   0.05359  -0.0127  0.0330  1.0000  -7.8121   0.0000   0.2452
  12.500   1.2624   0.06630   0.06098  -0.0131  0.0305  1.0000  -7.9716   0.0000   0.2448
  13.500   1.1846   0.09136   0.08696  -0.0231  0.0299  1.0000  -7.5423   0.0000   0.2522
  14.000   0.9341   0.17344   0.16959  -0.0753  0.0568  1.0000  -3.3190   0.0000   0.3157
  14.500   0.9535   0.17682   0.17303  -0.0754  0.0500  1.0000  -3.7165   0.0000   0.3131
  16.500   0.7579   0.20892   0.20567  -0.0881  0.0645  1.0000  -1.9999   0.0000   0.3516
  17.000   0.7601   0.21792   0.21469  -0.0923  0.0615  1.0000  -1.8970   0.0000   0.3563
  17.500   0.7633   0.22513   0.22193  -0.0967  0.0543  1.0000  -1.8052   0.0000   0.3610
  18.000   0.7858   0.23537   0.23222  -0.0967  0.0503  1.0000  -1.9185   0.0000   0.3565
  18.500   0.7759   0.24170   0.23853  -0.1039  0.0461  1.0000  -1.6341   0.0000   0.3671
  19.000   0.7858   0.24919   0.24605  -0.1067  0.0418  1.0000  -1.6134   0.0000   0.3681
  19.500   0.8089   0.26105   0.25795  -0.1065  0.0393  1.0000  -1.7263   0.0000   0.3631
  20.000   0.8003   0.26663   0.26352  -0.1135  0.0380  1.0000  -1.4564   0.0000   0.3727


